*Heading
** Job name: LBA_beam Model name: I_beam
** Generated by: Abaqus/CAE 6.13-3
*Preprint, echo=NO, model=NO, history=NO, contact=NO
**
** PARTS
**
*Part, name=beam
*Node
      1,  0.172000006,           0.,   2.53999996
      2,  0.172000006,           0.,           0.
      3,  0.344000012,           0.,           0.
      4,  0.344000012,           0.,   2.53999996
      5,           0.,           0.,   2.53999996
      6,           0.,           0.,           0.
      7,  0.172000006,  0.254000008,   2.53999996
      8,  0.172000006,  0.254000008,           0.
      9,           0.,  0.254000008,   2.53999996
     10,           0.,  0.254000008,           0.
     11,  0.344000012,  0.254000008,           0.
     12,  0.344000012,  0.254000008,   2.53999996
     13,  0.172000006,           0.,   2.51999998
     14,  0.172000006,           0.,          2.5
     15,  0.172000006,           0.,   2.48000002
     16,  0.172000006,           0.,   2.46000004
     17,  0.172000006,           0.,   2.44000006
     18,  0.172000006,           0.,   2.42000008
     19,  0.172000006,           0.,    2.4000001
     20,  0.172000006,           0.,   2.38000011
** ... 6380 like lines cut
*Element, type=S4R
   1,    1,   13,  857,  280
   2,   13,   14,  858,  857
   3,   14,   15,  859,  858
   4,   15,   16,  860,  859
   5,   16,   17,  861,  860
   6,   17,   18,  862,  861
   7,   18,   19,  863,  862
   8,   19,   20,  864,  863
   9,   20,   21,  865,  864
  10,   21,   22,  866,  865
  11,   22,   23,  867,  866
  12,   23,   24,  868,  867
  13,   24,   25,  869,  868
  14,   25,   26,  870,  869
  15,   26,   27,  871,  870
  16,   27,   28,  872,  871
  17,   28,   29,  873,  872
  18,   29,   30,  874,  873
  19,   30,   31,  875,  874
  20,   31,   32,  876,  875
** ... 6203 like lines cut
*Nset, nset=Set-1, generate
    1,  6400,     1
*Elset, elset=Set-1, generate
    1,  6223,     1
** Section: Section-1
*Shell Section, elset=Set-1, material=Aluminum
<thickness>, 5
*Transverse Shear
<trshr>, <trshr>, 0.
*End Part
**  
**
** ASSEMBLY
**
*Assembly, name=Assembly
**  
*Instance, name=beam-1, part=beam
*End Instance
**  
*Node
      1,  0.172000006,  0.127000004,   2.53999996
*Node
      2,  0.172000006,  0.127000004,           0.
*Nset, nset=center, instance=beam-1
 3622, 3623, 3634, 3635
*Nset, nset=left_nodes, instance=beam-1
   1,   4,   5,   7,   9,  12, 273, 274, 275, 276, 277, 278, 279, 280, 281, 282
 283, 284, 285, 286, 287, 288, 423, 424, 425, 426, 427, 428, 429, 430, 431, 432
 433, 434, 573, 574, 575, 576, 577, 578, 579, 580, 849, 850, 851, 852, 853, 854
 855, 856
*Nset, nset=m_Set-4
 1,
*Nset, nset=m_Set-5
 2,
*Nset, nset=right_nodes, instance=beam-1
   2,   3,   6,   8,  10,  11, 139, 140, 141, 142, 143, 144, 145, 146, 415, 416
 417, 418, 419, 420, 421, 422, 435, 436, 437, 438, 439, 440, 441, 442, 443, 444
 445, 446, 707, 708, 709, 710, 711, 712, 713, 714, 715, 716, 717, 718, 719, 720
 721, 722
*Surface, type=NODE, name=left_nodes_CNS_, internal
left_nodes, 1.
*Surface, type=NODE, name=right_nodes_CNS_, internal
right_nodes, 1.
** Constraint: left
*MPC
BEAM, left_nodes, m_Set-4
** Constraint: right
*MPC
BEAM, right_nodes, m_Set-5
*End Assembly
** 
** MATERIALS
** 
*Material, name=Aluminum
*Density
2700.,
*Elastic
<youngs_modulus>, 0.3333
**
** PARAMETER DEFINITION
**
*Parameter
thickness=0.0254
trshr=5.47688e+08
** ----------------------------------------------------------------
** 
** STEP: buckle
** 
*Step, name=buckle, nlgeom=NO, perturbation
*Buckle
10, , 18, 3000
** 
** BOUNDARY CONDITIONS
** 
** Name: center Type: Displacement/Rotation
*Boundary, op=NEW, load case=1
center, 3, 3
*Boundary, op=NEW, load case=2
center, 3, 3
** Name: left Type: Displacement/Rotation
*Boundary, op=NEW, load case=1
m_Set-4, 1, 1
m_Set-4, 2, 2
m_Set-4, 6, 6
*Boundary, op=NEW, load case=2
m_Set-4, 1, 1
m_Set-4, 2, 2
m_Set-4, 6, 6
** Name: right Type: Displacement/Rotation
*Boundary, op=NEW, load case=1
m_Set-5, 1, 1
m_Set-5, 2, 2
m_Set-5, 6, 6
*Boundary, op=NEW, load case=2
m_Set-5, 1, 1
m_Set-5, 2, 2
m_Set-5, 6, 6
** 
** LOADS
** 
** Name: left   Type: Moment
*Cload
m_Set-4, 4, -1.
** Name: right   Type: Moment
*Cload
m_Set-5, 4, 1.
** 
** OUTPUT REQUESTS
** 
*Restart, write, frequency=0
** 
** FIELD OUTPUT: F-Output-1
** 
*Output, field, variable=PRESELECT
*End Step
