1

   Abaqus 6.13-3                                  Date 13-Jul-2018   Time 10:32:45
   For use at  under license from Dassault Systemes or its subsidiary.

                                                                                 
                                                                                 
 STEP    1     INCREMENT     1     STEP TIME    0.00    


                        S T E P       1     C A L C U L A T I O N   O F   E I G E N V A L U E S

                                            F O R   B U C K L I N G   P R E D I C T I O N



                                                                                          

     THE SUBSPACE ITERATION METHOD IS USED FOR THIS ANALYSIS
     NUMBER OF EIGENVALUES                     10
     MAXIMUM NUMBER OF ITERATIONS                   3000
     NUMBER OF VECTORS IN ITERATION                   18
     THE BUCKLING MODE CONSTRAINTS 
      ARE DEFINED AS LOAD CASE 2
                              ONLY INITIAL STRESS EFFECTS ARE INCLUDED IN THE
                              STIFFNESS MATRIX

     THIS IS A LINEAR PERTURBATION STEP.
     ALL LOADS ARE DEFINED AS CHANGE IN LOAD TO THE REFERENCE STATE

     EXTRAPOLATION WILL NOT BE USED

     CHARACTERISTIC ELEMENT LENGTH     2.008E-02

     DETAILS REGARDING ACTUAL SOLUTION WAVEFRONT REQUESTED

     DETAILED OUTPUT OF DIAGNOSTICS TO DATABASE REQUESTED

     PRINT OF INCREMENT NUMBER, TIME, ETC., TO THE MESSAGE FILE EVERY     1  INCREMENTS

     EQUATIONS ARE BEING REORDERED TO MINIMIZE WAVEFRONT

  NUMBER OF EQUATIONS =    37812     NUMBER OF FLOATING PT. OPERATIONS =  1.64E+09

     CHECK POINT   START OF SOLVER    

     CHECK POINT  END OF SOLVER       

       ELAPSED USER TIME (SEC)      =   1.0000    
       ELAPSED SYSTEM TIME (SEC)    =   0.0000    
       ELAPSED TOTAL CPU TIME (SEC) =   1.0000    
       ELAPSED WALLCLOCK TIME (SEC) =          2
 
     ITERATION 1
      1       3.094052e+008    
      2       3.810221e+008    
      3       -4.334138e+008   
      4       4.621616e+008    
      5       -4.646035e+008   
      6       5.076687e+008    
      7       -5.640045e+008   
      8       -5.941310e+008   
      9       6.610011e+008    
      10      8.426546e+008    
      11      -8.524426e+008   
      12      -1.007743e+009   
      13      1.022524e+009    
      14      -1.307093e+009   
      15      2.135736e+009    
      16      -4.025345e+009   
      17      5.118586e+009    
      18      1.772578e+010    
 
     NUMBER OF EIGENVALUES CONVERGED UPTO THIS ITERATION = 0
 
     ITERATION 2
      1       6.274228e+006    
      2       8.064869e+006    
      3       -8.571296e+006   
      4       9.096511e+006    
      5       -1.074832e+007   
      6       1.089134e+007    
      7       -1.290919e+007   
      8       1.466981e+007    
      9       -1.516551e+007   
      10      -1.897146e+007   
      11      2.176220e+007    
      12      -2.564820e+007   
      13      2.798601e+007    
      14      3.278962e+007    
      15      -4.106822e+007   
      16      4.913309e+007    
      17      1.474028e+008    
      18      -2.071985e+008   
 
     NUMBER OF EIGENVALUES CONVERGED UPTO THIS ITERATION = 0
 
     ITERATION 3
      1       3.248610e+006    
      2       -3.609900e+006   
      3       3.618287e+006    
      4       4.122227e+006    
      5       -4.309341e+006   
      6       -4.654010e+006   
      7       5.256986e+006    
      8       -5.465081e+006   
      9       5.720831e+006    
      10      -6.012447e+006   
      11      6.536926e+006    
      12      -8.991142e+006   
      13      -1.073726e+007   
      14      1.120384e+007    
      15      1.304339e+007    
      16      1.529878e+007    
      17      2.119755e+007    
      18      -4.936428e+007   
 
     NUMBER OF EIGENVALUES CONVERGED UPTO THIS ITERATION = 0
 
     ITERATION 4
      1       2.965256e+006    
      2       -2.971041e+006   
      3       3.144910e+006    
      4       -3.263414e+006   
      5       3.291123e+006    
      6       -3.750905e+006   
      7       3.972961e+006    
      8       -4.085033e+006   
      9       4.373380e+006    
      10      -4.520581e+006   
      11      4.869064e+006    
      12      -5.778381e+006   
      13      -6.361810e+006   
      14      6.739523e+006    
      15      9.654253e+006    
      16      1.103303e+007    
      17      2.880405e+007    
      18      -3.699738e+007   
 
     NUMBER OF EIGENVALUES CONVERGED UPTO THIS ITERATION = 0
 
     ITERATION 5
      1       -2.783488e+006   
      2       2.838923e+006    
      3       -2.895524e+006   
      4       2.960768e+006    
      5       2.973122e+006    
      6       3.332739e+006    
      7       -3.416314e+006   
      8       -3.427274e+006   
      9       -3.791413e+006   
      10      3.854007e+006    
      11      4.092731e+006    
      12      -4.621048e+006   
      13      -5.013925e+006   
      14      5.330941e+006    
      15      7.206082e+006    
      16      9.869674e+006    
      17      -3.007480e+007   
      18      1.785862e+008    
 
     NUMBER OF EIGENVALUES CONVERGED UPTO THIS ITERATION = 0
 
     ITERATION 6
      1       -2.712315e+006   
      2       2.744362e+006    
      3       -2.751296e+006   
      4       2.843698e+006    
      5       2.889311e+006    
      6       3.042413e+006    
      7       -3.103879e+006   
      8       -3.260793e+006   
      9       -3.354499e+006   
      10      3.504555e+006    
      11      3.749838e+006    
      12      -3.929377e+006   
      13      -4.651157e+006   
      14      4.691464e+006    
      15      5.899710e+006    
      16      9.137459e+006    
      17      -1.999449e+007   
      18      -1.046371e+008   
 
     NUMBER OF EIGENVALUES CONVERGED UPTO THIS ITERATION = 0
 
     ITERATION 7
      1       -2.678611e+006   
      2       2.689556e+006    
      3       -2.690440e+006   
      4       2.774749e+006    
      5       2.855378e+006    
      6       2.903426e+006    
      7       -2.942810e+006   
      8       -3.116645e+006   
      9       -3.182722e+006   
      10      3.314398e+006    
      11      3.559293e+006    
      12      -3.569672e+006   
      13      4.290513e+006    
      14      -4.455865e+006   
      15      5.204961e+006    
      16      8.509738e+006    
      17      -1.319652e+007   
      18      -9.320781e+007   
 
     NUMBER OF EIGENVALUES CONVERGED UPTO THIS ITERATION = 0
 
     ITERATION 8
      1       -2.658626e+006   
      2       2.662647e+006    
      3       -2.664255e+006   
      4       2.722192e+006    
      5       2.829187e+006    
      6       2.853055e+006    
      7       -2.864772e+006   
      8       -2.986816e+006   
      9       -3.138204e+006   
      10      3.216562e+006    
      11      -3.379319e+006   
      12      3.426315e+006    
      13      4.022224e+006    
      14      -4.311368e+006   
      15      4.814191e+006    
      16      7.969011e+006    
      17      -9.909714e+006   
      18      -1.155595e+008   
 
     NUMBER OF EIGENVALUES CONVERGED UPTO THIS ITERATION = 0
 
     ITERATION 9
      1       -2.646459e+006   
      2       2.649743e+006    
      3       -2.652728e+006   
      4       2.685721e+006    
      5       2.808731e+006    
      6       -2.827306e+006   
      7       2.839935e+006    
      8       -2.914212e+006   
      9       -3.112915e+006   
      10      3.163682e+006    
      11      -3.272723e+006   
      12      3.327332e+006    
      13      3.845606e+006    
      14      -4.192389e+006   
      15      4.572566e+006    
      16      7.512087e+006    
      17      -8.091194e+006   
      18      -1.575284e+008   
 
     NUMBER OF EIGENVALUES CONVERGED UPTO THIS ITERATION = 0
 
     ITERATION 10
      1       -2.640144e+006   
      2       2.643484e+006    
      3       -2.646872e+006   
      4       2.663850e+006    
      5       2.798432e+006    
      6       -2.808876e+006   
      7       2.833976e+006    
      8       -2.873978e+006   
      9       -3.097648e+006   
      10      3.133554e+006    
      11      -3.209763e+006   
      12      3.253643e+006    
      13      3.729522e+006    
      14      -4.090090e+006   
      15      4.408267e+006    
      16      -6.956963e+006   
      17      7.127658e+006    
      18      -2.127258e+008   
 
     NUMBER OF EIGENVALUES CONVERGED UPTO THIS ITERATION = 0
 
     ITERATION 11
      1       -2.637000e+006   
      2       2.640223e+006    
      3       -2.643843e+006   
      4       2.651731e+006    
      5       2.793330e+006    
      6       -2.799383e+006   
      7       2.830548e+006    
      8       -2.851892e+006   
      9       -3.087906e+006   
      10      3.115555e+006    
      11      -3.171006e+006   
      12      3.200085e+006    
      13      3.651229e+006    
      14      -4.000491e+006   
      15      4.287726e+006    
      16      -6.193017e+006   
      17      6.801560e+006    
      18      -2.425778e+008   
 
     NUMBER OF EIGENVALUES CONVERGED UPTO THIS ITERATION = 0
 
     ITERATION 12
      1       -2.635448e+006   
      2       2.638135e+006    
      3       -2.642295e+006   
      4       2.645565e+006    
      5       2.790734e+006    
      6       -2.794263e+006   
      7       2.828450e+006    
      8       -2.839851e+006   
      9       -3.081375e+006   
      10      3.104121e+006    
      11      -3.146409e+006   
      12      3.162316e+006    
      13      3.596424e+006    
      14      -3.921412e+006   
      15      4.193953e+006    
      16      -5.652143e+006   
      17      6.521207e+006    
      18      -2.068282e+008   
 
     NUMBER OF EIGENVALUES CONVERGED UPTO THIS ITERATION = 0
 
     ITERATION 13
      1       -2.634680e+006   
      2       2.636522e+006    
      3       -2.641510e+006   
      4       2.642802e+006    
      5       2.789387e+006    
      6       -2.791423e+006   
      7       2.827147e+006    
      8       -2.833290e+006   
      9       -3.076814e+006   
      10      3.096025e+006    
      11      -3.130443e+006   
      12      3.136716e+006    
      13      3.556665e+006    
      14      -3.851475e+006   
      15      4.117574e+006    
      16      -5.255620e+006   
      17      6.277210e+006    
      18      -1.443216e+008   
 
     NUMBER OF EIGENVALUES CONVERGED UPTO THIS ITERATION = 0
 
     ITERATION 14
      1       -2.634299e+006   
      2       2.635383e+006    
      3       -2.641114e+006   
      4       2.641648e+006    
      5       2.788678e+006    
      6       -2.789835e+006   
      7       2.826340e+006    
      8       -2.829691e+006   
      9       -3.073524e+006   
      10      3.089307e+006    
      11      -3.119911e+006   
      12      3.120447e+006    
      13      3.526969e+006    
      14      -3.789732e+006   
      15      4.053081e+006    
      16      -4.956963e+006   
      17      6.063270e+006    
      18      -9.633847e+007   
 
     NUMBER OF EIGENVALUES CONVERGED UPTO THIS ITERATION = 0
 
     ITERATION 15
      1       -2.634108e+006   
      2       2.634695e+006    
      3       -2.640914e+006   
      4       2.641147e+006    
      5       2.788301e+006    
      6       -2.788950e+006   
      7       2.825847e+006    
      8       -2.827699e+006   
      9       -3.071092e+006   
      10      3.083166e+006    
      11      3.110963e+006    
      12      -3.112885e+006   
      13      3.504293e+006    
      14      -3.735478e+006   
      15      3.997105e+006    
      16      -4.726718e+006   
      17      5.875314e+006    
      18      -6.636220e+007   
 
     NUMBER OF EIGENVALUES CONVERGED UPTO THIS ITERATION = 0
 
     ITERATION 16
      1       -2.634011e+006   
      2       2.634315e+006    
      3       -2.640812e+006   
      4       2.640918e+006    
      5       2.788100e+006    
      6       -2.788460e+006   
      7       2.825548e+006    
      8       -2.826584e+006   
      9       -3.069262e+006   
      10      3.077821e+006    
      11      3.105726e+006    
      12      -3.108163e+006   
      13      3.486692e+006    
      14      -3.688132e+006   
      15      3.947547e+006    
      16      -4.545322e+006   
      17      5.710537e+006    
      18      -4.805766e+007   
 
     NUMBER OF EIGENVALUES CONVERGED UPTO THIS ITERATION = 0
 
     ITERATION 17
      1       -2.633962e+006   
      2       2.634114e+006    
      3       -2.640761e+006   
      4       2.640809e+006    
      5       2.787992e+006    
      6       -2.788191e+006   
      7       2.825370e+006    
      8       -2.825955e+006   
      9       -3.067873e+006   
      10      3.073607e+006    
      11      3.102803e+006    
      12      -3.104974e+006   
      13      3.472870e+006    
      14      -3.647142e+006   
      15      3.903089e+006    
      16      -4.399402e+006   
      17      5.566694e+006    
      18      -3.653108e+007   
 
     NUMBER OF EIGENVALUES CONVERGED UPTO THIS ITERATION = 0
 
     ITERATION 18
      1       -2.633936e+006   
      2       2.634012e+006    
      3       -2.640735e+006   
      4       2.640757e+006    
      5       2.787935e+006    
      6       -2.788043e+006   
      7       2.825265e+006    
      8       -2.825598e+006   
      9       -3.066817e+006   
      10      3.070511e+006    
      11      3.101100e+006    
      12      -3.102815e+006   
      13      3.461919e+006    
      14      -3.611942e+006   
      15      3.862909e+006    
      16      -4.279678e+006   
      17      5.441709e+006    
      18      -2.896055e+007   
 
     NUMBER OF EIGENVALUES CONVERGED UPTO THIS ITERATION = 0
 
     ITERATION 19
      1       -2.633923e+006   
      2       2.633960e+006    
      3       -2.640722e+006   
      4       2.640732e+006    
      5       2.787904e+006    
      6       -2.787963e+006   
      7       2.825203e+006    
      8       -2.825394e+006   
      9       -3.066018e+006   
      10      3.068328e+006    
      11      3.100069e+006    
      12      -3.101348e+006   
      13      3.453187e+006    
      14      -3.581940e+006   
      15      3.826482e+006    
      16      -4.179662e+006   
      17      5.333538e+006    
      18      -2.378177e+007   
 
     NUMBER OF EIGENVALUES CONVERGED UPTO THIS ITERATION = 0
 
     ITERATION 20
      1       -2.633916e+006   
      2       2.633934e+006    
      3       -2.640715e+006   
      4       2.640719e+006    
      5       2.787888e+006    
      6       -2.787920e+006   
      7       2.825167e+006    
      8       -2.825277e+006   
      9       -3.065417e+006   
      10      3.066825e+006    
      11      3.099426e+006    
      12      -3.100352e+006   
      13      3.446189e+006    
      14      -3.556528e+006   
      15      3.793462e+006    
      16      -4.094807e+006   
      17      5.240167e+006    
      18      -2.010927e+007   
 
     NUMBER OF EIGENVALUES CONVERGED UPTO THIS ITERATION = 0
 
     ITERATION 21
      1       -2.633913e+006   
      2       2.633921e+006    
      3       -2.640712e+006   
      4       2.640714e+006    
      5       2.787879e+006    
      6       -2.787897e+006   
      7       2.825147e+006    
      8       -2.825209e+006   
      9       -3.064969e+006   
      10      3.065805e+006    
      11      3.099016e+006    
      12      -3.099675e+006   
      13      3.440558e+006    
      14      -3.535108e+006   
      15      3.763596e+006    
      16      -4.021907e+006   
      17      5.159667e+006    
      18      -1.742305e+007   
 
     NUMBER OF EIGENVALUES CONVERGED UPTO THIS ITERATION = 0
 
     ITERATION 22
      1       -2.633911e+006   
      2       2.633915e+006    
      3       -2.640710e+006   
      4       2.640711e+006    
      5       2.787875e+006    
      6       -2.787884e+006   
      7       2.825135e+006    
      8       -2.825171e+006   
      9       -3.064636e+006   
      10      3.065119e+006    
      11      3.098751e+006    
      12      -3.099215e+006   
      13      3.436011e+006    
      14      -3.517113e+006   
      15      3.736677e+006    
      16      -3.958690e+006   
      17      5.090252e+006    
      18      -1.540556e+007   
 
     NUMBER OF EIGENVALUES CONVERGED UPTO THIS ITERATION = 2
 
     ITERATION 23
      1       -2.633910e+006   
      2       2.633912e+006    
      3       -2.640709e+006   
      4       2.640709e+006    
      5       2.787872e+006    
      6       -2.787877e+006   
      7       2.825128e+006    
      8       -2.825149e+006   
      9       -3.064391e+006   
      10      3.064661e+006    
      11      3.098579e+006    
      12      -3.098903e+006   
      13      3.432331e+006    
      14      -3.502022e+006   
      15      3.712511e+006    
      16      -3.903519e+006   
      17      5.030315e+006    
      18      -1.385558e+007   
 
     NUMBER OF EIGENVALUES CONVERGED UPTO THIS ITERATION = 4
 
     ITERATION 24
      1       -2.633909e+006   
      2       2.633910e+006    
      3       -2.640709e+006   
      4       2.640709e+006    
      5       2.787871e+006    
      6       -2.787874e+006   
      7       2.825124e+006    
      8       -2.825136e+006   
      9       -3.064212e+006   
      10      3.064355e+006    
      11      3.098466e+006    
      12      -3.098692e+006   
      13      3.429344e+006    
      14      -3.489370e+006   
      15      3.690909e+006    
      16      -3.855192e+006   
      17      4.978447e+006    
      18      -1.264127e+007   
 
     NUMBER OF EIGENVALUES CONVERGED UPTO THIS ITERATION = 5
 
     ITERATION 25
      1       -2.633909e+006   
      2       2.633910e+006    
      3       -2.640708e+006   
      4       2.640708e+006    
      5       2.787870e+006    
      6       -2.787872e+006   
      7       2.825121e+006    
      8       -2.825128e+006   
      9       -3.064082e+006   
      10      3.064152e+006    
      11      3.098391e+006    
      12      -3.098548e+006   
      13      3.426914e+006    
      14      -3.478752e+006   
      15      3.671675e+006    
      16      -3.812791e+006   
      17      4.933435e+006    
      18      -1.167361e+007   
 
     NUMBER OF EIGENVALUES CONVERGED UPTO THIS ITERATION = 7
 
     ITERATION 26
      1       -2.633909e+006   
      2       2.633909e+006    
      3       -2.640708e+006   
      4       2.640708e+006    
      5       2.787870e+006    
      6       -2.787871e+006   
      7       2.825120e+006    
      8       -2.825124e+006   
      9       -3.063988e+006   
      10      3.064017e+006    
      11      3.098342e+006    
      12      -3.098451e+006   
      13      3.424935e+006    
      14      -3.469819e+006   
      15      3.654614e+006    
      16      -3.775593e+006   
      17      4.894245e+006    
      18      -1.089095e+007   
 
     NUMBER OF EIGENVALUES CONVERGED UPTO THIS ITERATION = 7
 
     ITERATION 27
      1       -2.633909e+006   
      2       2.633909e+006    
      3       -2.640708e+006   
      4       2.640708e+006    
      5       2.787870e+006    
      6       -2.787870e+006   
      7       2.825119e+006    
      8       -2.825122e+006   
      9       -3.063920e+006   
      10      3.063928e+006    
      11      3.098310e+006    
      12      -3.098386e+006   
      13      3.423321e+006    
      14      -3.462279e+006   
      15      3.639531e+006    
      16      -3.743000e+006   
      17      4.860009e+006    
      18      -1.024951e+007   
 
     NUMBER OF EIGENVALUES CONVERGED UPTO THIS ITERATION = 8
 
     ITERATION 28
      1       -2.633909e+006   
      2       2.633909e+006    
      3       2.640708e+006    
      4       -2.640708e+006   
      5       2.787870e+006    
      6       -2.787870e+006   
      7       2.825119e+006    
      8       -2.825120e+006   
      9       3.063868e+006    
      10      -3.063871e+006   
      11      3.098288e+006    
      12      -3.098341e+006   
      13      3.422003e+006    
      14      -3.455885e+006   
      15      3.626236e+006    
      16      -3.714502e+006   
      17      4.829997e+006    
      18      -9.717648e+006   
 
     NUMBER OF EIGENVALUES CONVERGED UPTO THIS ITERATION = 8
 
     ITERATION 29
      1       -2.633909e+006   
      2       2.633909e+006    
      3       2.640708e+006    
      4       -2.640708e+006   
      5       2.787870e+006    
      6       -2.787870e+006   
      7       2.825119e+006    
      8       -2.825119e+006   
      9       3.063829e+006    
      10      -3.063836e+006   
      11      3.098274e+006    
      12      -3.098311e+006   
      13      3.420925e+006    
      14      -3.450438e+006   
      15      3.614545e+006    
      16      -3.689647e+006   
      17      4.803599e+006    
      18      -9.272003e+006   
 
     NUMBER OF EIGENVALUES CONVERGED UPTO THIS ITERATION = 8
 
     ITERATION 30
      1       -2.633909e+006   
      2       2.633909e+006    
      3       2.640708e+006    
      4       -2.640708e+006   
      5       2.787870e+006    
      6       -2.787870e+006   
      7       2.825118e+006    
      8       -2.825119e+006   
      9       3.063803e+006    
      10      -3.063811e+006   
      11      3.098265e+006    
      12      -3.098290e+006   
      13      3.420043e+006    
      14      -3.445773e+006   
      15      3.604288e+006    
      16      -3.668030e+006   
      17      4.780305e+006    
      18      -8.895090e+006   
 
     NUMBER OF EIGENVALUES CONVERGED UPTO THIS ITERATION = 8
 
     ITERATION 31
      1       -2.633909e+006   
      2       2.633909e+006    
      3       2.640708e+006    
      4       -2.640708e+006   
      5       2.787870e+006    
      6       -2.787870e+006   
      7       2.825118e+006    
      8       -2.825119e+006   
      9       3.063786e+006    
      10      -3.063794e+006   
      11      3.098258e+006    
      12      -3.098277e+006   
      13      3.419321e+006    
      14      -3.441758e+006   
      15      3.595303e+006    
      16      -3.649281e+006   
      17      4.759689e+006    
      18      -8.573620e+006   
 
     NUMBER OF EIGENVALUES CONVERGED UPTO THIS ITERATION = 8
 
     ITERATION 32
      1       -2.633909e+006   
      2       2.633909e+006    
      3       2.640708e+006    
      4       -2.640708e+006   
      5       2.787870e+006    
      6       -2.787870e+006   
      7       2.825118e+006    
      8       -2.825118e+006   
      9       3.063775e+006    
      10      -3.063781e+006   
      11      3.098254e+006    
      12      -3.098267e+006   
      13      3.418730e+006    
      14      -3.438288e+006   
      15      3.587443e+006    
      16      -3.633062e+006   
      17      4.741393e+006    
      18      -8.297358e+006   
 
     NUMBER OF EIGENVALUES CONVERGED UPTO THIS ITERATION = 8
 
     ITERATION 33
      1       -2.633909e+006   
      2       2.633909e+006    
      3       -2.640708e+006   
      4       2.640708e+006    
      5       2.787870e+006    
      6       -2.787870e+006   
      7       2.825118e+006    
      8       -2.825118e+006   
      9       3.063767e+006    
      10      -3.063772e+006   
      11      3.098252e+006    
      12      -3.098261e+006   
      13      3.418246e+006    
      14      -3.435277e+006   
      15      3.580576e+006    
      16      -3.619065e+006   
      17      4.725114e+006    
      18      -8.058330e+006   
 
     NUMBER OF EIGENVALUES CONVERGED UPTO THIS ITERATION = 8
 
     ITERATION 34
      1       -2.633909e+006   
      2       2.633909e+006    
      3       -2.640708e+006   
      4       2.640708e+006    
      5       2.787870e+006    
      6       -2.787870e+006   
      7       2.825118e+006    
      8       -2.825118e+006   
      9       3.063762e+006    
      10      -3.063766e+006   
      11      3.098250e+006    
      12      -3.098256e+006   
      13      3.417849e+006    
      14      -3.432658e+006   
      15      3.574580e+006    
      16      -3.607010e+006   
      17      4.710599e+006    
      18      -7.850254e+006   
 
     NUMBER OF EIGENVALUES CONVERGED UPTO THIS ITERATION = 8
 
     ITERATION 35
      1       -2.633909e+006   
      2       2.633909e+006    
      3       -2.640708e+006   
      4       2.640708e+006    
      5       2.787870e+006    
      6       -2.787870e+006   
      7       2.825118e+006    
      8       -2.825118e+006   
      9       3.063759e+006    
      10      -3.063762e+006   
      11      3.098249e+006    
      12      -3.098253e+006   
      13      3.417523e+006    
      14      -3.430376e+006   
      15      3.569346e+006    
      16      -3.596645e+006   
      17      4.697631e+006    
      18      -7.668129e+006   
 
     NUMBER OF EIGENVALUES CONVERGED UPTO THIS ITERATION = 8
 
     ITERATION 36
      1       -2.633909e+006   
      2       2.633909e+006    
      3       -2.640708e+006   
      4       2.640708e+006    
      5       2.787870e+006    
      6       -2.787870e+006   
      7       2.825118e+006    
      8       -2.825118e+006   
      9       3.063756e+006    
      10      -3.063759e+006   
      11      3.098248e+006    
      12      -3.098251e+006   
      13      3.417257e+006    
      14      -3.428388e+006   
      15      3.564781e+006    
      16      -3.587742e+006   
      17      4.686026e+006    
      18      -7.507935e+006   
 
     NUMBER OF EIGENVALUES CONVERGED UPTO THIS ITERATION = 10


          THE ANALYSIS HAS BEEN COMPLETED



     ANALYSIS SUMMARY:
     TOTAL OF          1  INCREMENTS
                       0  CUTBACKS IN AUTOMATIC INCREMENTATION
                       1  ITERATIONS INCLUDING CONTACT ITERATIONS IF PRESENT
                       1  PASSES THROUGH THE EQUATION SOLVER OF WHICH 
                       1  INVOLVE MATRIX DECOMPOSITION, INCLUDING
                       0  DECOMPOSITION(S) OF THE MASS MATRIX
                       1  REORDERING OF EQUATIONS TO MINIMIZE WAVEFRONT
                       0  ADDITIONAL RESIDUAL EVALUATIONS FOR LINE SEARCHES
                       0  ADDITIONAL OPERATOR EVALUATIONS FOR LINE SEARCHES
                       1  WARNING MESSAGES DURING USER INPUT PROCESSING
                       0  WARNING MESSAGES DURING ANALYSIS
                       0  ANALYSIS WARNINGS ARE NUMERICAL PROBLEM MESSAGES
                       0  ANALYSIS WARNINGS ARE NEGATIVE EIGENVALUE MESSAGES
                       0  ERROR MESSAGES



     JOB TIME SUMMARY
       USER TIME (SEC)      =   20.900    
       SYSTEM TIME (SEC)    =   3.1000    
       TOTAL CPU TIME (SEC) =   24.000    
       WALLCLOCK TIME (SEC) =         26
